pcf	
* control data
restart	estimation
   15   580    1     0     1
    1     1 single point 1 0 0
  5.0   2.0   0.3    0.01  10
  5.0   5.0   0.001
  0.1
   30  0.01     4     3  0.01     3
    1     1     1
* parameter groups
paragroup  relative 0.01  0.0  switch  2.0 parabolic

* parameter data
 srf_strg  fixed  factor   1.0   0.01 100.00  paragroup  1.0   0.0  1
srf_vgvlm  fixed  factor   0.0   0.0  100.00  paragroup  1.0   0.0  1
srf_rghns  fixed  factor   0.10  0.01   0.40  paragroup  1.0   0.0  1
  srf_slp  fixed  factor   0.0   0.0  100.00  paragroup  1.0   0.0  1

 pvm_thck  fixed  factor   9.8   0.01 100.00  paragroup  1.0   0.0  1
 pvm_vdrt  fixed  factor   0.60  0.01   1.00  paragroup  1.0   0.0  1
pvm_mpvfc  fixed  factor   0.9   0.01   1.00  paragroup  1.0   0.0  1
 pvm_prmb  fixed  factor  32.0   5.00  50.00  paragroup  1.0   0.0  1

 str_thck  fixed  factor   9.8   9.0   10.0   paragroup  1.0   0.0  1
 str_vdrt  fixed  factor   0.5   0.40   0.60  paragroup  1.0   0.0  1
 str_cndt  fixed  factor   0.07  0.001  0.10  paragroup  1.0   0.0  1

  drn_cff  fixed  factor   0.26  0.01  10.00  paragroup  1.0   0.0  1
  drn_xpn  fixed  factor   1.0   0.01   2.00  paragroup  1.0   0.0  1
 drn_ffst  fixed  factor   2.8   0.01   3.00  paragroup  1.0   0.0  1

ldu_ntstr  none   factor   9.8   0.01 100.00  paragroup  1.0   0.0  1
* observation groups
obsgroup

* observation data
dflw72042	0.000000   1.0  obsgroup
dflw72044	0.000000   1.0  obsgroup
dflw72046	0.000000   1.0  obsgroup
dflw72048	0.000000   1.0  obsgroup
dflw72050	0.000000   1.0  obsgroup
dflw72052	0.000000   1.0  obsgroup
dflw72054	0.000000   1.0  obsgroup
dflw72056	0.000000   1.0  obsgroup
dflw72058	0.000000   1.0  obsgroup
dflw72100	0.000000   1.0  obsgroup
dflw72102	0.000000   1.0  obsgroup
dflw72104	0.000000   1.0  obsgroup
dflw72106	0.000000   1.0  obsgroup
dflw72108	0.000000   1.0  obsgroup
dflw72110	0.000000   1.0  obsgroup
dflw72112	0.000000   1.0  obsgroup
dflw72114	0.000000   1.0  obsgroup
dflw72116	0.000000   1.0  obsgroup
dflw72118	0.000000   1.0  obsgroup
dflw72120	0.000000   1.0  obsgroup
dflw72122	0.000000   1.0  obsgroup
dflw72124	0.000000   1.0  obsgroup
dflw72126	0.000000   1.0  obsgroup
dflw72128	0.000000   1.0  obsgroup
dflw72130	0.000000   1.0  obsgroup
dflw72132	0.000000   1.0  obsgroup
dflw72134	0.000000   1.0  obsgroup
dflw72136	0.000000   1.0  obsgroup
dflw72138	0.000000   1.0  obsgroup
dflw72140	0.000000   1.0  obsgroup
dflw72142	0.000000   1.0  obsgroup
dflw72144	0.000000   1.0  obsgroup
dflw72146	0.000000   1.0  obsgroup
dflw72148	0.000000   1.0  obsgroup
dflw72150	0.000000   1.0  obsgroup
dflw72152	0.000000   1.0  obsgroup
dflw72154	0.000000   1.0  obsgroup
dflw72156	0.000000   1.0  obsgroup
dflw72158	0.000000   1.0  obsgroup
dflw72200	0.000000   1.0  obsgroup
dflw72202	0.000000   1.0  obsgroup
dflw72204	0.000000   1.0  obsgroup
dflw72206	0.000000   1.0  obsgroup
dflw72208	0.000000   1.0  obsgroup
dflw72210	0.000000   1.0  obsgroup
dflw72212	0.000000   1.0  obsgroup
dflw72214	0.000000   1.0  obsgroup
dflw72216	0.000000   1.0  obsgroup
dflw72218	0.000000   1.0  obsgroup
dflw72220	0.000000   1.0  obsgroup
dflw72222	0.000000   1.0  obsgroup
dflw72224	0.000000   1.0  obsgroup
dflw72226	0.000000   1.0  obsgroup
dflw72228	0.000000   1.0  obsgroup
dflw72230	0.000000   1.0  obsgroup
dflw72232	0.000000   1.0  obsgroup
dflw72234	0.000000   1.0  obsgroup
dflw72236	0.000000   1.0  obsgroup
dflw72238	0.000000   1.0  obsgroup
dflw72240	0.000000   1.0  obsgroup
dflw72242	0.000000   1.0  obsgroup
dflw72244	0.000000   1.0  obsgroup
dflw72246	0.000000   1.0  obsgroup
dflw72248	0.000000   1.0  obsgroup
dflw72250	0.000000   1.0  obsgroup
dflw72252	0.000000   1.0  obsgroup
dflw72254	0.000000   1.0  obsgroup
dflw72256	0.000000   1.0  obsgroup
dflw72258	0.000000   1.0  obsgroup
dflw72300	0.000000   1.0  obsgroup
dflw72302	0.000000   1.0  obsgroup
dflw72304	0.000000   1.0  obsgroup
dflw72306	0.000000   1.0  obsgroup
dflw72308	0.000000   1.0  obsgroup
dflw72310	0.000000   1.0  obsgroup
dflw72312	0.000000   1.0  obsgroup
dflw72314	0.000000   1.0  obsgroup
dflw72316	0.000000   1.0  obsgroup
dflw72318	0.000000   1.0  obsgroup
dflw72320	0.000000   1.0  obsgroup
dflw72322	0.000000   1.0  obsgroup
dflw72324	0.000000   1.0  obsgroup
dflw72326	0.000000   1.0  obsgroup
dflw72328	0.000000   1.0  obsgroup
dflw72330	0.000000   1.0  obsgroup
dflw72332	0.000000   1.0  obsgroup
dflw72334	0.000000   1.0  obsgroup
dflw72336	0.000000   1.0  obsgroup
dflw72338	0.000000   1.0  obsgroup
dflw72340	0.000000   1.0  obsgroup
dflw72342	0.000000   1.0  obsgroup
dflw72344	0.000000   1.0  obsgroup
dflw72346	0.000000   1.0  obsgroup
dflw72348	0.000000   1.0  obsgroup
dflw72350	0.000000   1.0  obsgroup
dflw72352	0.000000   1.0  obsgroup
dflw72354	0.000000   1.0  obsgroup
dflw72356	0.000000   1.0  obsgroup
dflw72358	0.000000   1.0  obsgroup
dflw80000	0.000000   1.0  obsgroup
dflw80002	0.000000   1.0  obsgroup
dflw80004	0.000000   1.0  obsgroup
dflw80006	0.000000   1.0  obsgroup
dflw80008	0.000000   1.0  obsgroup
dflw80010	0.000000   1.0  obsgroup
dflw80012	0.000000   1.0  obsgroup
dflw80014	0.000000   1.0  obsgroup
dflw80016	0.000000   1.0  obsgroup
dflw80018	0.000000   1.0  obsgroup
dflw80020	0.000000   1.0  obsgroup
dflw80022	0.000000   1.0  obsgroup
dflw80024	0.000000   1.0  obsgroup
dflw80026	0.000000   1.0  obsgroup
dflw80028	0.000000   1.0  obsgroup
dflw80030	0.000000   1.0  obsgroup
dflw80032	0.000000   1.0  obsgroup
dflw80034	0.000000   1.0  obsgroup
dflw80036	0.000000   1.0  obsgroup
dflw80038	0.000000   1.0  obsgroup
dflw80040	0.000000   1.0  obsgroup
dflw80042	0.000000   1.0  obsgroup
dflw80044	0.000000   1.0  obsgroup
dflw80046	0.000000   1.0  obsgroup
dflw80048	0.000000   1.0  obsgroup
dflw80050	0.000000   1.0  obsgroup
dflw80052	0.000000   1.0  obsgroup
dflw80054	0.000000   1.0  obsgroup
dflw80056	0.000000   1.0  obsgroup
dflw80058	0.000000   1.0  obsgroup
dflw80100	0.000000   1.0  obsgroup
dflw80102	0.000000   1.0  obsgroup
dflw80104	0.000000   1.0  obsgroup
dflw80106	0.000000   1.0  obsgroup
dflw80108	0.000000   1.0  obsgroup
dflw80110	0.000000   1.0  obsgroup
dflw80112	0.000000   1.0  obsgroup
dflw80114	0.000000   1.0  obsgroup
dflw80116	0.000000   1.0  obsgroup
dflw80118	0.000000   1.0  obsgroup
dflw80120	0.000000   1.0  obsgroup
dflw80122	0.000000   1.0  obsgroup
dflw80124	0.000000   1.0  obsgroup
dflw80126	0.000000   1.0  obsgroup
dflw80128	0.000000   1.0  obsgroup
dflw80130	0.000000   1.0  obsgroup
dflw80132	0.000000   1.0  obsgroup
dflw80134	0.000000   1.0  obsgroup
dflw80136	0.000000   1.0  obsgroup
dflw80138	0.000000   1.0  obsgroup
dflw80140	0.000000   1.0  obsgroup
dflw80142	0.000000   1.0  obsgroup
dflw80144	0.000000   1.0  obsgroup
dflw80146	0.000000   1.0  obsgroup
dflw80148	0.000000   1.0  obsgroup
dflw80150	0.000000   1.0  obsgroup
dflw80152	0.001244   1.0  obsgroup
dflw80154	0.005846   1.0  obsgroup
dflw80156	0.009825   1.0  obsgroup
dflw80158	0.017163   1.0  obsgroup
dflw80200	0.017163   1.0  obsgroup
dflw80202	0.017163   1.0  obsgroup
dflw80204	0.017163   1.0  obsgroup
dflw80206	0.017163   1.0  obsgroup
dflw80208	0.017163   1.0  obsgroup
dflw80210	0.017163   1.0  obsgroup
dflw80212	0.017163   1.0  obsgroup
dflw80214	0.017163   1.0  obsgroup
dflw80216	0.017163   1.0  obsgroup
dflw80218	0.017163   1.0  obsgroup
dflw80220	0.017163   1.0  obsgroup
dflw80222	0.017163   1.0  obsgroup
dflw80224	0.017163   1.0  obsgroup
dflw80226	0.017163   1.0  obsgroup
dflw80228	0.017163   1.0  obsgroup
dflw80230	0.017163   1.0  obsgroup
dflw80232	0.017163   1.0  obsgroup
dflw80234	0.017163   1.0  obsgroup
dflw80236	0.017163   1.0  obsgroup
dflw80238	0.017163   1.0  obsgroup
dflw80240	0.017163   1.0  obsgroup
dflw80242	0.017163   1.0  obsgroup
dflw80244	0.033072   1.0  obsgroup
dflw80246	0.033072   1.0  obsgroup
dflw80248	0.047297   1.0  obsgroup
dflw80250	0.060023   1.0  obsgroup
dflw80252	0.074608   1.0  obsgroup
dflw80254	0.074608   1.0  obsgroup
dflw80256	0.091136   1.0  obsgroup
dflw80258	0.091136   1.0  obsgroup
dflw80300	0.091136   1.0  obsgroup
dflw80302	0.116332   1.0  obsgroup
dflw80304	0.137697   1.0  obsgroup
dflw80306	0.137697   1.0  obsgroup
dflw80308	0.161257   1.0  obsgroup
dflw80310	0.187085   1.0  obsgroup
dflw80312	0.187085   1.0  obsgroup
dflw80314	0.225164   1.0  obsgroup
dflw80316	0.225164   1.0  obsgroup
dflw80318	0.256543   1.0  obsgroup
dflw80320	0.290408   1.0  obsgroup
dflw80322	0.339539   1.0  obsgroup
dflw80324	0.339539   1.0  obsgroup
dflw80326	0.290408   1.0  obsgroup
dflw80328	0.290408   1.0  obsgroup
dflw80330	0.290408   1.0  obsgroup
dflw80332	0.256543   1.0  obsgroup
dflw80334	0.290408   1.0  obsgroup
dflw80336	0.290408   1.0  obsgroup
dflw80338	0.339539   1.0  obsgroup
dflw80340	0.379448   1.0  obsgroup
dflw80342	0.290408   1.0  obsgroup
dflw80344	0.290408   1.0  obsgroup
dflw80346	0.256543   1.0  obsgroup
dflw80348	0.256543   1.0  obsgroup
dflw80350	0.225164   1.0  obsgroup
dflw80352	0.225164   1.0  obsgroup
dflw80354	0.225164   1.0  obsgroup
dflw80356	0.225164   1.0  obsgroup
dflw80358	0.225164   1.0  obsgroup
dflw80400	0.225164   1.0  obsgroup
dflw80402	0.225164   1.0  obsgroup
dflw80404	0.339539   1.0  obsgroup
dflw80406	0.532228   1.0  obsgroup
dflw80408	0.467394   1.0  obsgroup
dflw80410	0.584204   1.0  obsgroup
dflw80412	0.584204   1.0  obsgroup
dflw80414	0.467394   1.0  obsgroup
dflw80416	0.532228   1.0  obsgroup
dflw80418	0.467394   1.0  obsgroup
dflw80420	0.467394   1.0  obsgroup
dflw80422	0.467394   1.0  obsgroup
dflw80424	0.467394   1.0  obsgroup
dflw80426	0.639112   1.0  obsgroup
dflw80428	1.083934   1.0  obsgroup
dflw80430	1.451225   1.0  obsgroup
dflw80432	1.676119   1.0  obsgroup
dflw80434	1.676119   1.0  obsgroup
dflw80436	1.676119   1.0  obsgroup
dflw80438	1.778503   1.0  obsgroup
dflw80440	1.676119   1.0  obsgroup
dflw80442	1.676119   1.0  obsgroup
dflw80444	1.545230   1.0  obsgroup
dflw80446	1.451225   1.0  obsgroup
dflw80448	1.451225   1.0  obsgroup
dflw80450	1.360737   1.0  obsgroup
dflw80452	1.273722   1.0  obsgroup
dflw80454	1.273722   1.0  obsgroup
dflw80456	1.163025   1.0  obsgroup
dflw80458	1.083934   1.0  obsgroup
dflw80500	1.083934   1.0  obsgroup
dflw80502	0.912210   1.0  obsgroup
dflw80504	0.843993   1.0  obsgroup
dflw80506	0.716976   1.0  obsgroup
dflw80508	0.716976   1.0  obsgroup
dflw80510	0.584204   1.0  obsgroup
dflw80512	0.639112   1.0  obsgroup
dflw80514	0.584204   1.0  obsgroup
dflw80516	0.584204   1.0  obsgroup
dflw80518	0.532228   1.0  obsgroup
dflw80520	0.532228   1.0  obsgroup
dflw80522	0.467394   1.0  obsgroup
dflw80524	0.422047   1.0  obsgroup
dflw80526	0.422047   1.0  obsgroup
dflw80528	0.379448   1.0  obsgroup
dflw80530	0.379448   1.0  obsgroup
dflw80532	0.339539   1.0  obsgroup
dflw80534	0.339539   1.0  obsgroup
dflw80536	0.290408   1.0  obsgroup
dflw80538	0.290408   1.0  obsgroup
dflw80540	0.256543   1.0  obsgroup
dflw80542	0.256543   1.0  obsgroup
dflw80544	0.256543   1.0  obsgroup
dflw80546	0.225164   1.0  obsgroup
dflw80548	0.225164   1.0  obsgroup
dflw80550	0.225164   1.0  obsgroup
dflw80552	0.187085   1.0  obsgroup
dflw80554	0.161257   1.0  obsgroup
dflw80556	0.161257   1.0  obsgroup
dflw80558	0.161257   1.0  obsgroup
dflw80600	0.161257   1.0  obsgroup
dflw80602	0.116332   1.0  obsgroup
dflw80604	0.116332   1.0  obsgroup
dflw80606	0.116332   1.0  obsgroup
dflw80608	0.091136   1.0  obsgroup
dflw80610	0.091136   1.0  obsgroup
dflw80612	0.091136   1.0  obsgroup
dflw80614	0.091136   1.0  obsgroup
dflw80616	0.074608   1.0  obsgroup
dflw80618	0.091136   1.0  obsgroup
dflw80620	0.074608   1.0  obsgroup
dflw80622	0.074608   1.0  obsgroup
dflw80624	0.060023   1.0  obsgroup
dflw80626	0.060023   1.0  obsgroup
dflw80628	0.047297   1.0  obsgroup
dflw80630	0.047297   1.0  obsgroup
dflw80632	0.060023   1.0  obsgroup
dflw80634	0.060023   1.0  obsgroup
dflw80636	0.060023   1.0  obsgroup
dflw80638	0.060023   1.0  obsgroup
dflw80640	0.047297   1.0  obsgroup
dflw80642	0.047297   1.0  obsgroup
dflw80644	0.047297   1.0  obsgroup
dflw80646	0.047297   1.0  obsgroup
dflw80648	0.033072   1.0  obsgroup
dflw80650	0.033072   1.0  obsgroup
dflw80652	0.033072   1.0  obsgroup
dflw80654	0.033072   1.0  obsgroup
dflw80656	0.024342   1.0  obsgroup
dflw80658	0.024342   1.0  obsgroup
dflw80700	0.024342   1.0  obsgroup
dflw80702	0.017163   1.0  obsgroup
dflw80704	0.017163   1.0  obsgroup
dflw80706	0.017163   1.0  obsgroup
dflw80708	0.017163   1.0  obsgroup
dflw80710	0.017163   1.0  obsgroup
dflw80712	0.017163   1.0  obsgroup
dflw80714	0.017163   1.0  obsgroup
dflw80716	0.017163   1.0  obsgroup
dflw80718	0.009825   1.0  obsgroup
dflw80720	0.017163   1.0  obsgroup
dflw80722	0.009825   1.0  obsgroup
dflw80724	0.009825   1.0  obsgroup
dflw80726	0.009825   1.0  obsgroup
dflw80728	0.009825   1.0  obsgroup
dflw80730	0.009825   1.0  obsgroup
dflw80732	0.005846   1.0  obsgroup
dflw80734	0.005846   1.0  obsgroup
dflw80736	0.005846   1.0  obsgroup
dflw80738	0.005846   1.0  obsgroup
dflw80740	0.005846   1.0  obsgroup
dflw80742	0.005846   1.0  obsgroup
dflw80744	0.005846   1.0  obsgroup
dflw80746	0.005846   1.0  obsgroup
dflw80748	0.005846   1.0  obsgroup
dflw80750	0.005846   1.0  obsgroup
dflw80752	0.005846   1.0  obsgroup
dflw80754	0.005846   1.0  obsgroup
dflw80756	0.005846   1.0  obsgroup
dflw80758	0.005846   1.0  obsgroup
dflw80800	0.005846   1.0  obsgroup
dflw80802	0.003034   1.0  obsgroup
dflw80804	0.003034   1.0  obsgroup
dflw80806	0.003034   1.0  obsgroup
dflw80808	0.003034   1.0  obsgroup
dflw80810	0.003034   1.0  obsgroup
dflw80812	0.003034   1.0  obsgroup
dflw80814	0.003034   1.0  obsgroup
dflw80816	0.003034   1.0  obsgroup
dflw80818	0.003034   1.0  obsgroup
dflw80820	0.005846   1.0  obsgroup
dflw80822	0.003034   1.0  obsgroup
dflw80824	0.003034   1.0  obsgroup
dflw80826	0.003034   1.0  obsgroup
dflw80828	0.003034   1.0  obsgroup
dflw80830	0.003034   1.0  obsgroup
dflw80832	0.003034   1.0  obsgroup
dflw80834	0.003034   1.0  obsgroup
dflw80836	0.003034   1.0  obsgroup
dflw80838	0.003034   1.0  obsgroup
dflw80840	0.003034   1.0  obsgroup
dflw80842	0.003034   1.0  obsgroup
dflw80844	0.003034   1.0  obsgroup
dflw80846	0.003034   1.0  obsgroup
dflw80848	0.003034   1.0  obsgroup
dflw80850	0.003034   1.0  obsgroup
dflw80852	0.003034   1.0  obsgroup
dflw80854	0.003034   1.0  obsgroup
dflw80856	0.003034   1.0  obsgroup
dflw80858	0.003034   1.0  obsgroup
dflw80900	0.003034   1.0  obsgroup
dflw80902	0.003034   1.0  obsgroup
dflw80904	0.003034   1.0  obsgroup
dflw80906	0.003034   1.0  obsgroup
dflw80908	0.003034   1.0  obsgroup
dflw80910	0.003034   1.0  obsgroup
dflw80912	0.003034   1.0  obsgroup
dflw80914	0.003034   1.0  obsgroup
dflw80916	0.003034   1.0  obsgroup
dflw80918	0.003034   1.0  obsgroup
dflw80920	0.003034   1.0  obsgroup
dflw80922	0.003034   1.0  obsgroup
dflw80924	0.003034   1.0  obsgroup
dflw80926	0.001244   1.0  obsgroup
dflw80928	0.003034   1.0  obsgroup
dflw80930	0.001244   1.0  obsgroup
dflw80932	0.003034   1.0  obsgroup
dflw80934	0.003034   1.0  obsgroup
dflw80936	0.003034   1.0  obsgroup
dflw80938	0.003034   1.0  obsgroup
dflw80940	0.001244   1.0  obsgroup
dflw80942	0.003034   1.0  obsgroup
dflw80944	0.003034   1.0  obsgroup
dflw80946	0.003034   1.0  obsgroup
dflw80948	0.003034   1.0  obsgroup
dflw80950	0.003034   1.0  obsgroup
dflw80952	0.003034   1.0  obsgroup
dflw80954	0.003034   1.0  obsgroup
dflw80956	0.003034   1.0  obsgroup
dflw80958	0.001244   1.0  obsgroup
dflw81000	0.003034   1.0  obsgroup
dflw81002	0.001244   1.0  obsgroup
dflw81004	0.001244   1.0  obsgroup
dflw81006	0.001244   1.0  obsgroup
dflw81008	0.001244   1.0  obsgroup
dflw81010	0.001244   1.0  obsgroup
dflw81012	0.001244   1.0  obsgroup
dflw81014	0.001244   1.0  obsgroup
dflw81016	0.001244   1.0  obsgroup
dflw81018	0.003034   1.0  obsgroup
dflw81020	0.001244   1.0  obsgroup
dflw81022	0.003034   1.0  obsgroup
dflw81024	0.001244   1.0  obsgroup
dflw81026	0.003034   1.0  obsgroup
dflw81028	0.003034   1.0  obsgroup
dflw81030	0.001244   1.0  obsgroup
dflw81032	0.001244   1.0  obsgroup
dflw81034	0.003034   1.0  obsgroup
dflw81036	0.001244   1.0  obsgroup
dflw81038	0.001244   1.0  obsgroup
dflw81040	0.003034   1.0  obsgroup
dflw81042	0.001244   1.0  obsgroup
dflw81044	0.001244   1.0  obsgroup
dflw81046	0.001244   1.0  obsgroup
dflw81048	0.001244   1.0  obsgroup
dflw81050	0.003034   1.0  obsgroup
dflw81052	0.003034   1.0  obsgroup
dflw81054	0.001244   1.0  obsgroup
dflw81056	0.001244   1.0  obsgroup
dflw81058	0.001244   1.0  obsgroup
dflw81100	0.001244   1.0  obsgroup
dflw81102	0.001244   1.0  obsgroup
dflw81104	0.001244   1.0  obsgroup
dflw81106	0.001244   1.0  obsgroup
dflw81108	0.001244   1.0  obsgroup
dflw81110	0.001244   1.0  obsgroup
dflw81112	0.001244   1.0  obsgroup
dflw81114	0.001244   1.0  obsgroup
dflw81116	0.001244   1.0  obsgroup
dflw81118	0.001244   1.0  obsgroup
dflw81120	0.001244   1.0  obsgroup
dflw81122	0.001244   1.0  obsgroup
dflw81124	0.001244   1.0  obsgroup
dflw81126	0.001244   1.0  obsgroup
dflw81128	0.001244   1.0  obsgroup
dflw81130	0.001244   1.0  obsgroup
dflw81132	0.001244   1.0  obsgroup
dflw81134	0.001244   1.0  obsgroup
dflw81136	0.001244   1.0  obsgroup
dflw81138	0.001244   1.0  obsgroup
dflw81140	0.001244   1.0  obsgroup
dflw81142	0.001244   1.0  obsgroup
dflw81144	0.001244   1.0  obsgroup
dflw81146	0.001244   1.0  obsgroup
dflw81148	0.001244   1.0  obsgroup
dflw81150	0.001244   1.0  obsgroup
dflw81152	0.001244   1.0  obsgroup
dflw81154	0.001244   1.0  obsgroup
dflw81156	0.001244   1.0  obsgroup
dflw81158	0.001244   1.0  obsgroup
dflw81200	0.001244   1.0  obsgroup
dflw81202	0.001244   1.0  obsgroup
dflw81204	0.001244   1.0  obsgroup
dflw81206	0.001244   1.0  obsgroup
dflw81208	0.001244   1.0  obsgroup
dflw81210	0.001244   1.0  obsgroup
dflw81212	0.001244   1.0  obsgroup
dflw81214	0.001244   1.0  obsgroup
dflw81216	0.001244   1.0  obsgroup
dflw81218	0.001244   1.0  obsgroup
dflw81220	0.001244   1.0  obsgroup
dflw81222	0.001244   1.0  obsgroup
dflw81224	0.001244   1.0  obsgroup
dflw81226	0.001244   1.0  obsgroup
dflw81228	0.001244   1.0  obsgroup
dflw81230	0.001244   1.0  obsgroup
dflw81232	0.001244   1.0  obsgroup
dflw81234	0.001244   1.0  obsgroup
dflw81236	0.001244   1.0  obsgroup
dflw81238	0.001244   1.0  obsgroup
dflw81240	0.001244   1.0  obsgroup
dflw81242	0.001244   1.0  obsgroup
dflw81244	0.001244   1.0  obsgroup
dflw81246	0.001244   1.0  obsgroup
dflw81248	0.001244   1.0  obsgroup
dflw81250	0.001244   1.0  obsgroup
dflw81252	0.001244   1.0  obsgroup
dflw81254	0.001244   1.0  obsgroup
dflw81256	0.001244   1.0  obsgroup
dflw81258	0.001244   1.0  obsgroup
dflw81300	0.001244   1.0  obsgroup
dflw81302	0.000150   1.0  obsgroup
dflw81304	0.001244   1.0  obsgroup
dflw81306	0.000150   1.0  obsgroup
dflw81308	0.001244   1.0  obsgroup
dflw81310	0.001244   1.0  obsgroup
dflw81312	0.001244   1.0  obsgroup
dflw81314	0.001244   1.0  obsgroup
dflw81316	0.001244   1.0  obsgroup
dflw81318	0.001244   1.0  obsgroup
dflw81320	0.000150   1.0  obsgroup
dflw81322	0.001244   1.0  obsgroup
dflw81324	0.000150   1.0  obsgroup
dflw81326	0.000150   1.0  obsgroup
dflw81328	0.001244   1.0  obsgroup
dflw81330	0.001244   1.0  obsgroup
dflw81332	0.000150   1.0  obsgroup
dflw81334	0.000150   1.0  obsgroup
dflw81336	0.001244   1.0  obsgroup
dflw81338	0.001244   1.0  obsgroup
dflw81340	0.001244   1.0  obsgroup
dflw81342	0.000150   1.0  obsgroup
dflw81344	0.000150   1.0  obsgroup
dflw81346	0.000150   1.0  obsgroup
dflw81348	0.001244   1.0  obsgroup
dflw81350	0.001244   1.0  obsgroup
dflw81352	0.001244   1.0  obsgroup
dflw81354	0.001244   1.0  obsgroup
dflw81356	0.001244   1.0  obsgroup
dflw81358	0.001244   1.0  obsgroup
dflw81400	0.001244   1.0  obsgroup
dflw81402	0.000150   1.0  obsgroup
dflw81404	0.000150   1.0  obsgroup
dflw81406	0.000150   1.0  obsgroup
dflw81408	0.000150   1.0  obsgroup
dflw81410	0.000150   1.0  obsgroup
dflw81412	0.001244   1.0  obsgroup
dflw81414	0.000150   1.0  obsgroup
dflw81416	0.000150   1.0  obsgroup
dflw81418	0.001244   1.0  obsgroup
dflw81420	0.000150   1.0  obsgroup
dflw81422	0.000150   1.0  obsgroup
dflw81424	0.000150   1.0  obsgroup
dflw81426	0.001244   1.0  obsgroup
dflw81428	0.000150   1.0  obsgroup
dflw81430	0.001244   1.0  obsgroup
dflw81432	0.000150   1.0  obsgroup
dflw81434	0.000150   1.0  obsgroup
dflw81436	0.000150   1.0  obsgroup
dflw81438	0.000150   1.0  obsgroup
dflw81440	0.000150   1.0  obsgroup
dflw81442	0.000150   1.0  obsgroup
dflw81444	0.000150   1.0  obsgroup
dflw81446	0.000150   1.0  obsgroup
dflw81448	0.000150   1.0  obsgroup
dflw81450	0.000150   1.0  obsgroup
dflw81452	0.000150   1.0  obsgroup
dflw81454	0.000150   1.0  obsgroup
dflw81456	0.000150   1.0  obsgroup
dflw81458	0.000000   1.0  obsgroup
dflw81500	0.000000   1.0  obsgroup
dflw81502	0.000000   1.0  obsgroup
dflw81504	0.000150   1.0  obsgroup
dflw81506	0.000150   1.0  obsgroup
dflw81508	0.000000   1.0  obsgroup
dflw81510	0.000000   1.0  obsgroup
dflw81512	0.000150   1.0  obsgroup
dflw81514	0.000000   1.0  obsgroup
dflw81516	0.000150   1.0  obsgroup
dflw81518	0.000000   1.0  obsgroup
dflw81520	0.000000   1.0  obsgroup
dflw81522	0.000000   1.0  obsgroup
dflw81524	0.000150   1.0  obsgroup
dflw81526	0.000000   1.0  obsgroup
dflw81528	0.000000   1.0  obsgroup
dflw81530	0.000150   1.0  obsgroup
dflw81532	0.000000   1.0  obsgroup
dflw81534	0.000000   1.0  obsgroup
dflw81536	0.000000   1.0  obsgroup
dflw81538	0.000000   1.0  obsgroup
dflw81540	0.000000   1.0  obsgroup
dflw81542	0.000000   1.0  obsgroup
dflw81544	0.000000   1.0  obsgroup
dflw81546	0.000000   1.0  obsgroup
dflw81548	0.000000   1.0  obsgroup
dflw81550	0.000000   1.0  obsgroup
dflw81552	0.000000   1.0  obsgroup
dflw81554	0.000000   1.0  obsgroup
dflw81556	0.000000   1.0  obsgroup
dflw81558	0.000000   1.0  obsgroup
dflw81600	0.000000   1.0  obsgroup

* model command line
..\..\..\..\bin\swmm517.exe ppvmnt16val2.inp ppvmnt16val2.rpt ppvmnt16val2.out
* model input/output
ppvmnt16val2.tpl   ppvmnt16val2.inp
ppvmnt16val2.ins   pp16.txt

* prior information