[TITLE]
;;Project Title/Notes
Data from Permeable Pavement Cell "A" in Boone, NC
Data entered on September 4, 2013 by E. Hirschmann
BMP ID 16, STRM 127

[OPTIONS]
;;Option             Value
FLOW_UNITS           GPM
INFILTRATION         GREEN_AMPT
FLOW_ROUTING         DYNWAVE
LINK_OFFSETS         DEPTH
MIN_SLOPE            0
ALLOW_PONDING        YES
SKIP_STEADY_STATE    NO

START_DATE           04/27/2011
START_TIME           20:59:00
REPORT_START_DATE    04/28/2011
REPORT_START_TIME    03:12:00
END_DATE             04/28/2011
END_TIME             05:50:00
SWEEP_START          01/01
SWEEP_END            12/31
DRY_DAYS             0
REPORT_STEP          00:02:00
WET_STEP             00:00:15
DRY_STEP             00:02:00
ROUTING_STEP         0:00:05 

INERTIAL_DAMPING     PARTIAL
NORMAL_FLOW_LIMITED  BOTH
FORCE_MAIN_EQUATION  H-W
VARIABLE_STEP        0.00
LENGTHENING_STEP     0
MIN_SURFAREA         0
MAX_TRIALS           0
HEAD_TOLERANCE       0
SYS_FLOW_TOL         5
LAT_FLOW_TOL         5

[EVAPORATION]
;;Evap Data      Parameters
;;-------------- ----------------
CONSTANT         0.0
DRY_ONLY         NO

[RAINGAGES]
;;Gage           Format    Interval SCF      Source    
;;-------------- --------- ------ ------ ----------
4/27/11_Storm    INTENSITY 0:01     1.0      TIMESERIES Storm127        

[SUBCATCHMENTS]
;;Subcatchment   Rain Gage        Outlet           Area     %Imperv  Width    %Slope   CurbLen  Snow Pack       
;;-------------- ---------------- ---------------- -------- -------- -------- -------- -------- ----------------
;Subcatchment for NC Porous Pavement(BMP ID #16)
NC_PermeablePvmt 4/27/11_Storm    1                .00638   100      8        1        0                        

[SUBAREAS]
;;Subcatchment   N-Imperv   N-Perv     S-Imperv   S-Perv     PctZero    RouteTo    PctRouted 
;;-------------- ---------- ---------- ---------- ---------- ---------- ---------- ----------
NC_PermeablePvmt 0.01       0.1        0          0          25         OUTLET    

[INFILTRATION]
;;Subcatchment   Suction    HydCon     IMDmax    
;;-------------- ---------- ---------- ----------
NC_PermeablePvmt 3.0        0.5        4         

[LID_CONTROLS]
;;               Type/Layer Parameters
;;-------------- ---------- ----------
NC_Pororous_Pvmt PP
NC_Pororous_Pvmt SURFACE    30         0          0.024      0          5         
NC_Pororous_Pvmt PAVEMENT   100        .075       .9         17700      200       
NC_Pororous_Pvmt STORAGE    400        .6         12.5       200       
NC_Pororous_Pvmt DRAIN      6          .4         0          6         

[LID_USAGE]
;;Subcatchment   LID Process      Number  Area       Width      InitSatur  FromImprv  ToPerv     
;;-------------- ---------------- ------- ---------- ---------- ---------- ---------- ---------- 
NC_PermeablePvmt NC_Pororous_Pvmt 1       63.80      8          0          100        0          "NC Porous Pvmt Validation 2 LID Output.txt"

[OUTFALLS]
;;Outfall        Invert     Type       Stage Data       Gated   
;;-------------- ---------- ---------- ---------------- --------
1                0          FREE                        NO

[TIMESERIES]
;;Time Series    Date       Time       Value     
;;-------------- ---------- ---------- ----------
;04/27/2011 NC Porous Pavement Storm (mm/hr)
Storm127         4/27/2011  21:0       3.047024952
Storm127         4/27/2011  21:5       3.049951966
Storm127         4/27/2011  21:15      1.522781776
Storm127         4/27/2011  21:20      3.049951966
Storm127         4/27/2011  21:30      4.574927954
Storm127         4/27/2011  21:55      3.048195085
Storm127         4/27/2011  22:0       18.24712644
Storm127         4/27/2011  22:20      0.761939045
Storm127         4/27/2011  22:35      1.016650656
Storm127         4/27/2011  22:40      12.19980789
Storm127         4/27/2011  22:45      3.04118774
Storm127         4/27/2011  22:55      1.524975985
Storm127         4/28/2011  0:0        0.234455767
Storm127         4/28/2011  0:35       1.306046894
Storm127         4/28/2011  1:0        0.609639017
Storm127         4/28/2011  1:10       3.04995197
Storm127         4/28/2011  1:15       3.049951966
Storm127         4/28/2011  1:30       2.031349968
Storm127         4/28/2011  1:35       12.19980787
Storm127         4/28/2011  1:40       9.149855918
Storm127         4/28/2011  1:45       6.08237548
Storm127         4/28/2011  1:50       18.2997118
Storm127         4/28/2011  1:55       54.89913551
Storm127         4/28/2011  2:0        12.19980787
Storm127         4/28/2011  2:5        6.08237548
Storm127         4/28/2011  2:10       3.049951973
Storm127         4/28/2011  2:20       1.524975983
Storm127         4/28/2011  2:25       9.149855918
Storm127         4/28/2011  2:30       6.08237548
Storm127         4/28/2011  2:35       3.049951966
Storm127         4/28/2011  2:45       1.524975985
Storm127         4/28/2011  3:0        2.031349968
Storm127         4/28/2011  3:5        6.099903933
Storm127         4/28/2011  3:15       1.522781776
Storm127         4/28/2011  3:25       1.524975985
Storm127         4/28/2011  3:30       3.049951966
Storm127         4/28/2011  3:55       1.219278034
Storm127         4/28/2011  4:0        21.28831418
Storm127         4/28/2011  4:5        6.099903933
Storm127         4/28/2011  4:20       5.078374921
Storm127         4/28/2011  4:25       36.59942367
Storm127         4/28/2011  4:30       9.149855899
Storm127         4/28/2011  5:5        0.435348965
Storm127         4/28/2011  6:5        0.254040646
Storm127         4/28/2011  6:10       6.099903946
Storm127         4/28/2011  6:25       1.015674984

[REPORT]
;;Reporting Options
INPUT      YES
CONTROLS   YES
SUBCATCHMENTS ALL
NODES ALL
LINKS ALL

[TAGS]

[MAP]
DIMENSIONS 0.000 0.000 10000.000 10000.000
Units      None

[COORDINATES]
;;Node           X-Coord            Y-Coord           
;;-------------- ------------------ ------------------
1                6674.234           6265.607          

[VERTICES]
;;Link           X-Coord            Y-Coord           
;;-------------- ------------------ ------------------

[Polygons]
;;Subcatchment   X-Coord            Y-Coord           
;;-------------- ------------------ ------------------
NC_PermeablePvmt 1783.781           7951.079          
NC_PermeablePvmt 2564.846           8223.268          
NC_PermeablePvmt 3570.764           8033.919          
NC_PermeablePvmt 4103.308           7465.871          
NC_PermeablePvmt 4624.018           6637.469          
NC_PermeablePvmt 3570.764           6270.605          
NC_PermeablePvmt 2647.687           6175.931          
NC_PermeablePvmt 1570.764           6696.641          
NC_PermeablePvmt 1464.255           7501.374          
NC_PermeablePvmt 1795.616           7915.576          

[SYMBOLS]
;;Gage           X-Coord            Y-Coord           
;;-------------- ------------------ ------------------
4/27/11_Storm    1328.036           8127.128          

