;;06-03-2005 Storm Analysis of Villanova BTI

[OPTIONS]
;;Option             Value
FLOW_UNITS           CFS
INFILTRATION         GREEN_AMPT
FLOW_ROUTING         DYNWAVE
LINK_OFFSETS         DEPTH
MIN_SLOPE            0
ALLOW_PONDING        YES
SKIP_STEADY_STATE    NO

START_DATE           06/02/2005
START_TIME           22:00:00
REPORT_START_DATE    06/02/2005
REPORT_START_TIME    22:00:00
END_DATE             06/04/2005
END_TIME             07:00:00
SWEEP_START          01/01
SWEEP_END            12/31
DRY_DAYS             0
REPORT_STEP          00:05:00
WET_STEP             00:01:00
DRY_STEP             00:05:00
ROUTING_STEP         0:00:05 

INERTIAL_DAMPING     PARTIAL
NORMAL_FLOW_LIMITED  BOTH
FORCE_MAIN_EQUATION  H-W
VARIABLE_STEP        0.75
LENGTHENING_STEP     0
MIN_SURFAREA         12.557
MAX_TRIALS           8
HEAD_TOLERANCE       0.005
SYS_FLOW_TOL         5
LAT_FLOW_TOL         5
MINIMUM_STEP         0.5
THREADS              1

[EVAPORATION]
;;Data Source    Parameters
;;-------------- ----------------
CONSTANT         0.0
DRY_ONLY         NO

[RAINGAGES]
;;Name           Format    Interval SCF      Source    
;;-------------- --------- ------ ------ ----------
1                INTENSITY 0:01     1.0      TIMESERIES strm103         

[SUBCATCHMENTS]
;;Name           Rain Gage        Outlet           Area     %Imperv  Width    %Slope   CurbLen  SnowPack        
;;-------------- ---------------- ---------------- -------- -------- -------- -------- -------- ----------------
LID              1                Outflow          0.03447  0        39.0       1.00000      0                        

[SUBAREAS]
;;Subcatchment   N-Imperv   N-Perv     S-Imperv   S-Perv     PctZero    RouteTo    PctRouted 
;;-------------- ---------- ---------- ---------- ---------- ---------- ---------- ----------
LID              0.01       0.24       0.05       0.100000        25         OUTLET    

[INFILTRATION]
;;Subcatchment   Suction    Ksat       IMD       
;;-------------- ---------- ---------- ----------
LID              7.00000       0.230000       50.0000      

[LID_CONTROLS]
;;Name           Type/Layer Parameters
;;-------------- ---------- ----------
BTI              RG
BTI              SURFACE    18.0       0.200000       0.410000       1.08000        5         
BTI              SOIL       48.0       0.420000       0.147000       7.000000E-02       0.210000       7.50000        2.72000      

[LID_USAGE]
;;Subcatchment   LID Process      Number  Area       Width      InitSat    FromImp    ToPerv     RptFile                  DrainTo         
;;-------------- ---------------- ------- ---------- ---------- ---------- ---------- ---------- ------------------------ ----------------
LID              BTI              1       1501.51    1.12000          114.477         0          0          ".\LIDReport.txt"

[OUTFALLS]
;;Name           Elevation  Type       Stage Data       Gated    Route To        
;;-------------- ---------- ---------- ---------------- -------- ----------------
Inflow           0          FREE                        NO       LID             
Outflow          0          FREE                        NO                       

[INFLOWS]
;;Node           Constituent      Time Series      Type     Mfactor  Sfactor  Baseline Pattern
;;-------------- ---------------- ---------------- -------- -------- -------- -------- --------
Inflow           FLOW             Inflow           FLOW     1.0      1.0              

[TIMESERIES]
;;Name           Date       Time       Value     
;;-------------- ---------- ---------- ----------
;1 min intensity time series (in/hr)
strm103          6/2/2005   23:57      0.12      
strm103          6/2/2005   23:58      0.12      
strm103          6/2/2005   23:59      0.12      
strm103          6/3/2005   0:0        0.12      
strm103          6/3/2005   0:1        0.12      
strm103          6/3/2005   2:42       0.12      
strm103          6/3/2005   2:43       0.12      
strm103          6/3/2005   2:44       0.12      
strm103          6/3/2005   2:45       0.12      
strm103          6/3/2005   2:46       0.12      
strm103          6/3/2005   3:32       0.12      
strm103          6/3/2005   3:33       0.12      
strm103          6/3/2005   3:34       0.12      
strm103          6/3/2005   3:35       0.12      
strm103          6/3/2005   3:36       0.12      
strm103          6/3/2005   3:52       0.12      
strm103          6/3/2005   3:53       0.12      
strm103          6/3/2005   3:54       0.12      
strm103          6/3/2005   3:55       0.12      
strm103          6/3/2005   3:56       0.12      
strm103          6/3/2005   4:12       0.06      
strm103          6/3/2005   4:13       0.06      
strm103          6/3/2005   4:14       0.06      
strm103          6/3/2005   4:15       0.06      
strm103          6/3/2005   4:16       0.06      
strm103          6/3/2005   4:17       0.06      
strm103          6/3/2005   4:18       0.06      
strm103          6/3/2005   4:19       0.06      
strm103          6/3/2005   4:20       0.06      
strm103          6/3/2005   4:21       0.06      
strm103          6/3/2005   4:22       0.06      
strm103          6/3/2005   4:23       0.06      
strm103          6/3/2005   4:24       0.06      
strm103          6/3/2005   4:25       0.06      
strm103          6/3/2005   4:26       0.06      
strm103          6/3/2005   4:27       0.06      
strm103          6/3/2005   4:28       0.06      
strm103          6/3/2005   4:29       0.06      
strm103          6/3/2005   4:30       0.06      
strm103          6/3/2005   4:31       0.06      
strm103          6/3/2005   4:32       0.06      
strm103          6/3/2005   4:33       0.06      
strm103          6/3/2005   4:34       0.06      
strm103          6/3/2005   4:35       0.06      
strm103          6/3/2005   4:36       0.06      
strm103          6/3/2005   4:37       0.06      
strm103          6/3/2005   4:38       0.06      
strm103          6/3/2005   4:39       0.06      
strm103          6/3/2005   4:40       0.06      
strm103          6/3/2005   4:41       0.06      
strm103          6/3/2005   4:42       0.06      
strm103          6/3/2005   4:43       0.06      
strm103          6/3/2005   4:44       0.06      
strm103          6/3/2005   4:45       0.06      
strm103          6/3/2005   4:46       0.06      
strm103          6/3/2005   4:47       0.06      
strm103          6/3/2005   4:48       0.06      
strm103          6/3/2005   4:49       0.06      
strm103          6/3/2005   4:50       0.06      
strm103          6/3/2005   4:51       0.06      
strm103          6/3/2005   4:52       0.06      
strm103          6/3/2005   4:53       0.06      
strm103          6/3/2005   4:54       0.06      
strm103          6/3/2005   4:55       0.06      
strm103          6/3/2005   4:56       0.06      
strm103          6/3/2005   4:57       0.06      
strm103          6/3/2005   4:58       0.06      
strm103          6/3/2005   4:59       0.06      
strm103          6/3/2005   5:0        0.06      
strm103          6/3/2005   5:1        0.06      
strm103          6/3/2005   5:2        0.06      
strm103          6/3/2005   5:3        0.06      
strm103          6/3/2005   5:4        0.06      
strm103          6/3/2005   5:5        0.06      
strm103          6/3/2005   5:6        0.04      
strm103          6/3/2005   5:7        0.04      
strm103          6/3/2005   5:8        0.04      
strm103          6/3/2005   5:9        0.04      
strm103          6/3/2005   5:10       0.04      
strm103          6/3/2005   5:11       0.04      
strm103          6/3/2005   5:12       0.04      
strm103          6/3/2005   5:13       0.04      
strm103          6/3/2005   5:14       0.04      
strm103          6/3/2005   5:15       0.04      
strm103          6/3/2005   5:16       0.04      
strm103          6/3/2005   5:17       0.04      
strm103          6/3/2005   5:18       0.04      
strm103          6/3/2005   5:19       0.04      
strm103          6/3/2005   5:20       0.04      
strm103          6/3/2005   5:21       0.06      
strm103          6/3/2005   5:22       0.06      
strm103          6/3/2005   5:23       0.06      
strm103          6/3/2005   5:24       0.06      
strm103          6/3/2005   5:25       0.06      
strm103          6/3/2005   5:26       0.06      
strm103          6/3/2005   5:27       0.06      
strm103          6/3/2005   5:28       0.06      
strm103          6/3/2005   5:29       0.06      
strm103          6/3/2005   5:30       0.06      
strm103          6/3/2005   5:31       0.06      
strm103          6/3/2005   5:32       0.06      
strm103          6/3/2005   5:33       0.06      
strm103          6/3/2005   5:34       0.06      
strm103          6/3/2005   5:35       0.06      
strm103          6/3/2005   5:36       0.06      
strm103          6/3/2005   5:37       0.06      
strm103          6/3/2005   5:38       0.06      
strm103          6/3/2005   5:39       0.06      
strm103          6/3/2005   5:40       0.06      
strm103          6/3/2005   5:41       0.12      
strm103          6/3/2005   5:42       0.12      
strm103          6/3/2005   5:43       0.12      
strm103          6/3/2005   5:44       0.12      
strm103          6/3/2005   5:45       0.12      
strm103          6/3/2005   5:46       0.06      
strm103          6/3/2005   5:47       0.06      
strm103          6/3/2005   5:48       0.06      
strm103          6/3/2005   5:49       0.06      
strm103          6/3/2005   5:50       0.06      
strm103          6/3/2005   5:51       0.06      
strm103          6/3/2005   5:52       0.06      
strm103          6/3/2005   5:53       0.06      
strm103          6/3/2005   5:54       0.06      
strm103          6/3/2005   5:55       0.06      
strm103          6/3/2005   5:56       0.12      
strm103          6/3/2005   5:57       0.12      
strm103          6/3/2005   5:58       0.12      
strm103          6/3/2005   5:59       0.12      
strm103          6/3/2005   6:0        0.12      
strm103          6/3/2005   6:1        0.06      
strm103          6/3/2005   6:2        0.06      
strm103          6/3/2005   6:3        0.06      
strm103          6/3/2005   6:4        0.06      
strm103          6/3/2005   6:5        0.06      
strm103          6/3/2005   6:6        0.06      
strm103          6/3/2005   6:7        0.06      
strm103          6/3/2005   6:8        0.06      
strm103          6/3/2005   6:9        0.06      
strm103          6/3/2005   6:10       0.06      
strm103          6/3/2005   6:11       0.12      
strm103          6/3/2005   6:12       0.12      
strm103          6/3/2005   6:13       0.12      
strm103          6/3/2005   6:14       0.12      
strm103          6/3/2005   6:15       0.12      
strm103          6/3/2005   6:16       0.06      
strm103          6/3/2005   6:17       0.06      
strm103          6/3/2005   6:18       0.06      
strm103          6/3/2005   6:19       0.06      
strm103          6/3/2005   6:20       0.06      
strm103          6/3/2005   6:21       0.06      
strm103          6/3/2005   6:22       0.06      
strm103          6/3/2005   6:23       0.06      
strm103          6/3/2005   6:24       0.06      
strm103          6/3/2005   6:25       0.06      
strm103          6/3/2005   6:26       0.12      
strm103          6/3/2005   6:27       0.12      
strm103          6/3/2005   6:28       0.12      
strm103          6/3/2005   6:29       0.12      
strm103          6/3/2005   6:30       0.12      
strm103          6/3/2005   6:31       0.06      
strm103          6/3/2005   6:32       0.06      
strm103          6/3/2005   6:33       0.06      
strm103          6/3/2005   6:34       0.06      
strm103          6/3/2005   6:35       0.06      
strm103          6/3/2005   6:36       0.06      
strm103          6/3/2005   6:37       0.06      
strm103          6/3/2005   6:38       0.06      
strm103          6/3/2005   6:39       0.06      
strm103          6/3/2005   6:40       0.06      
strm103          6/3/2005   6:41       0.06      
strm103          6/3/2005   6:42       0.06      
strm103          6/3/2005   6:43       0.06      
strm103          6/3/2005   6:44       0.06      
strm103          6/3/2005   6:45       0.06      
strm103          6/3/2005   6:46       0.06      
strm103          6/3/2005   6:47       0.06      
strm103          6/3/2005   6:48       0.06      
strm103          6/3/2005   6:49       0.06      
strm103          6/3/2005   6:50       0.06      
strm103          6/3/2005   6:51       0.12      
strm103          6/3/2005   6:52       0.12      
strm103          6/3/2005   6:53       0.12      
strm103          6/3/2005   6:54       0.12      
strm103          6/3/2005   6:55       0.12      
strm103          6/3/2005   6:56       0.12      
strm103          6/3/2005   6:57       0.12      
strm103          6/3/2005   6:58       0.12      
strm103          6/3/2005   6:59       0.12      
strm103          6/3/2005   7:0        0.12      
strm103          6/3/2005   7:1        0.12      
strm103          6/3/2005   7:2        0.12      
strm103          6/3/2005   7:3        0.12      
strm103          6/3/2005   7:4        0.12      
strm103          6/3/2005   7:5        0.12      
strm103          6/3/2005   7:6        0.06      
strm103          6/3/2005   7:7        0.06      
strm103          6/3/2005   7:8        0.06      
strm103          6/3/2005   7:9        0.06      
strm103          6/3/2005   7:10       0.06      
strm103          6/3/2005   7:11       0.06      
strm103          6/3/2005   7:12       0.06      
strm103          6/3/2005   7:13       0.06      
strm103          6/3/2005   7:14       0.06      
strm103          6/3/2005   7:15       0.06      
strm103          6/3/2005   7:16       0.04      
strm103          6/3/2005   7:17       0.04      
strm103          6/3/2005   7:18       0.04      
strm103          6/3/2005   7:19       0.04      
strm103          6/3/2005   7:20       0.04      
strm103          6/3/2005   7:21       0.04      
strm103          6/3/2005   7:22       0.04      
strm103          6/3/2005   7:23       0.04      
strm103          6/3/2005   7:24       0.04      
strm103          6/3/2005   7:25       0.04      
strm103          6/3/2005   7:26       0.04      
strm103          6/3/2005   7:27       0.04      
strm103          6/3/2005   7:28       0.04      
strm103          6/3/2005   7:29       0.04      
strm103          6/3/2005   7:30       0.04      
strm103          6/3/2005   7:31       0.12      
strm103          6/3/2005   7:32       0.12      
strm103          6/3/2005   7:33       0.12      
strm103          6/3/2005   7:34       0.12      
strm103          6/3/2005   7:35       0.12      
strm103          6/3/2005   7:36       0.06      
strm103          6/3/2005   7:37       0.06      
strm103          6/3/2005   7:38       0.06      
strm103          6/3/2005   7:39       0.06      
strm103          6/3/2005   7:40       0.06      
strm103          6/3/2005   7:41       0.06      
strm103          6/3/2005   7:42       0.06      
strm103          6/3/2005   7:43       0.06      
strm103          6/3/2005   7:44       0.06      
strm103          6/3/2005   7:45       0.06      
strm103          6/3/2005   7:46       0.12      
strm103          6/3/2005   7:47       0.12      
strm103          6/3/2005   7:48       0.12      
strm103          6/3/2005   7:49       0.12      
strm103          6/3/2005   7:50       0.12      
strm103          6/3/2005   7:51       0.06      
strm103          6/3/2005   7:52       0.06      
strm103          6/3/2005   7:53       0.06      
strm103          6/3/2005   7:54       0.06      
strm103          6/3/2005   7:55       0.06      
strm103          6/3/2005   7:56       0.06      
strm103          6/3/2005   7:57       0.06      
strm103          6/3/2005   7:58       0.06      
strm103          6/3/2005   7:59       0.06      
strm103          6/3/2005   8:0        0.06      
strm103          6/3/2005   8:1        0.12      
strm103          6/3/2005   8:2        0.12      
strm103          6/3/2005   8:3        0.12      
strm103          6/3/2005   8:4        0.12      
strm103          6/3/2005   8:5        0.12      
strm103          6/3/2005   8:6        0.06      
strm103          6/3/2005   8:7        0.06      
strm103          6/3/2005   8:8        0.06      
strm103          6/3/2005   8:9        0.06      
strm103          6/3/2005   8:10       0.06      
strm103          6/3/2005   8:11       0.06      
strm103          6/3/2005   8:12       0.06      
strm103          6/3/2005   8:13       0.06      
strm103          6/3/2005   8:14       0.06      
strm103          6/3/2005   8:15       0.06      
strm103          6/3/2005   8:16       0.12      
strm103          6/3/2005   8:17       0.12      
strm103          6/3/2005   8:18       0.12      
strm103          6/3/2005   8:19       0.12      
strm103          6/3/2005   8:20       0.12      
strm103          6/3/2005   8:21       0.06      
strm103          6/3/2005   8:22       0.06      
strm103          6/3/2005   8:23       0.06      
strm103          6/3/2005   8:24       0.06      
strm103          6/3/2005   8:25       0.06      
strm103          6/3/2005   8:26       0.06      
strm103          6/3/2005   8:27       0.06      
strm103          6/3/2005   8:28       0.06      
strm103          6/3/2005   8:29       0.06      
strm103          6/3/2005   8:30       0.06      
strm103          6/3/2005   8:31       0.12      
strm103          6/3/2005   8:32       0.12      
strm103          6/3/2005   8:33       0.12      
strm103          6/3/2005   8:34       0.12      
strm103          6/3/2005   8:35       0.12      
strm103          6/3/2005   8:36       0.06      
strm103          6/3/2005   8:37       0.06      
strm103          6/3/2005   8:38       0.06      
strm103          6/3/2005   8:39       0.06      
strm103          6/3/2005   8:40       0.06      
strm103          6/3/2005   8:41       0.06      
strm103          6/3/2005   8:42       0.06      
strm103          6/3/2005   8:43       0.06      
strm103          6/3/2005   8:44       0.06      
strm103          6/3/2005   8:45       0.06      
strm103          6/3/2005   8:46       0.12      
strm103          6/3/2005   8:47       0.12      
strm103          6/3/2005   8:48       0.12      
strm103          6/3/2005   8:49       0.12      
strm103          6/3/2005   8:50       0.12      
strm103          6/3/2005   8:51       0.06      
strm103          6/3/2005   8:52       0.06      
strm103          6/3/2005   8:53       0.06      
strm103          6/3/2005   8:54       0.06      
strm103          6/3/2005   8:55       0.06      
strm103          6/3/2005   8:56       0.06      
strm103          6/3/2005   8:57       0.06      
strm103          6/3/2005   8:58       0.06      
strm103          6/3/2005   8:59       0.06      
strm103          6/3/2005   9:0        0.06      
strm103          6/3/2005   9:1        0.12      
strm103          6/3/2005   9:2        0.12      
strm103          6/3/2005   9:3        0.12      
strm103          6/3/2005   9:4        0.12      
strm103          6/3/2005   9:5        0.12      
strm103          6/3/2005   9:6        0.06      
strm103          6/3/2005   9:7        0.06      
strm103          6/3/2005   9:8        0.06      
strm103          6/3/2005   9:9        0.06      
strm103          6/3/2005   9:10       0.06      
strm103          6/3/2005   9:11       0.06      
strm103          6/3/2005   9:12       0.06      
strm103          6/3/2005   9:13       0.06      
strm103          6/3/2005   9:14       0.06      
strm103          6/3/2005   9:15       0.06      
strm103          6/3/2005   9:16       0.12      
strm103          6/3/2005   9:17       0.12      
strm103          6/3/2005   9:18       0.12      
strm103          6/3/2005   9:19       0.12      
strm103          6/3/2005   9:20       0.12      
strm103          6/3/2005   9:21       0.06      
strm103          6/3/2005   9:22       0.06      
strm103          6/3/2005   9:23       0.06      
strm103          6/3/2005   9:24       0.06      
strm103          6/3/2005   9:25       0.06      
strm103          6/3/2005   9:26       0.06      
strm103          6/3/2005   9:27       0.06      
strm103          6/3/2005   9:28       0.06      
strm103          6/3/2005   9:29       0.06      
strm103          6/3/2005   9:30       0.06      
strm103          6/3/2005   9:31       0.04      
strm103          6/3/2005   9:32       0.04      
strm103          6/3/2005   9:33       0.04      
strm103          6/3/2005   9:34       0.04      
strm103          6/3/2005   9:35       0.04      
strm103          6/3/2005   9:36       0.04      
strm103          6/3/2005   9:37       0.04      
strm103          6/3/2005   9:38       0.04      
strm103          6/3/2005   9:39       0.04      
strm103          6/3/2005   9:40       0.04      
strm103          6/3/2005   9:41       0.04      
strm103          6/3/2005   9:42       0.04      
strm103          6/3/2005   9:43       0.04      
strm103          6/3/2005   9:44       0.04      
strm103          6/3/2005   9:45       0.04      
strm103          6/3/2005   9:46       0.04      
strm103          6/3/2005   10:17      0.06      
strm103          6/3/2005   10:18      0.06      
strm103          6/3/2005   10:19      0.06      
strm103          6/3/2005   10:20      0.06      
strm103          6/3/2005   10:21      0.06      
strm103          6/3/2005   10:22      0.06      
strm103          6/3/2005   10:23      0.06      
strm103          6/3/2005   10:24      0.06      
strm103          6/3/2005   10:25      0.06      
strm103          6/3/2005   10:26      0.06      
strm103          6/3/2005   10:27      0.06      
strm103          6/3/2005   10:28      0.06      
strm103          6/3/2005   10:29      0.06      
strm103          6/3/2005   10:30      0.06      
strm103          6/3/2005   10:31      0.12      
strm103          6/3/2005   10:32      0.12      
strm103          6/3/2005   10:33      0.12      
strm103          6/3/2005   10:34      0.12      
strm103          6/3/2005   10:35      0.12      
strm103          6/3/2005   10:36      0.12      
strm103          6/3/2005   10:37      0.12      
strm103          6/3/2005   10:38      0.12      
strm103          6/3/2005   10:39      0.12      
strm103          6/3/2005   10:40      0.12      
strm103          6/3/2005   10:41      0.12      
strm103          6/3/2005   10:42      0.12      
strm103          6/3/2005   10:43      0.12      
strm103          6/3/2005   10:44      0.12      
strm103          6/3/2005   10:45      0.12      
strm103          6/3/2005   10:46      0.12      
strm103          6/3/2005   10:47      0.12      
strm103          6/3/2005   10:48      0.12      
strm103          6/3/2005   10:49      0.12      
strm103          6/3/2005   10:50      0.12      
strm103          6/3/2005   10:51      0.12      
strm103          6/3/2005   10:52      0.12      
strm103          6/3/2005   10:53      0.12      
strm103          6/3/2005   10:54      0.12      
strm103          6/3/2005   10:55      0.12      
strm103          6/3/2005   10:56      0.12      
strm103          6/3/2005   10:57      0.12      
strm103          6/3/2005   10:58      0.12      
strm103          6/3/2005   10:59      0.12      
strm103          6/3/2005   11:0       0.12      
strm103          6/3/2005   11:1       0.12      
strm103          6/3/2005   11:2       0.12      
strm103          6/3/2005   11:3       0.12      
strm103          6/3/2005   11:4       0.12      
strm103          6/3/2005   11:5       0.12      
strm103          6/3/2005   11:6       0.12      
strm103          6/3/2005   11:7       0.12      
strm103          6/3/2005   11:8       0.12      
strm103          6/3/2005   11:9       0.12      
strm103          6/3/2005   11:10      0.12      
strm103          6/3/2005   11:11      0.12      
strm103          6/3/2005   11:12      0.12      
strm103          6/3/2005   11:13      0.12      
strm103          6/3/2005   11:14      0.12      
strm103          6/3/2005   11:15      0.12      
strm103          6/3/2005   11:16      0.12      
strm103          6/3/2005   11:17      0.12      
strm103          6/3/2005   11:18      0.12      
strm103          6/3/2005   11:19      0.12      
strm103          6/3/2005   11:20      0.12      
strm103          6/3/2005   11:21      0.12      
strm103          6/3/2005   11:22      0.12      
strm103          6/3/2005   11:23      0.12      
strm103          6/3/2005   11:24      0.12      
strm103          6/3/2005   11:25      0.12      
strm103          6/3/2005   11:26      0.12      
strm103          6/3/2005   11:27      0.12      
strm103          6/3/2005   11:28      0.12      
strm103          6/3/2005   11:29      0.12      
strm103          6/3/2005   11:30      0.12      
strm103          6/3/2005   11:31      0.12      
strm103          6/3/2005   11:32      0.12      
strm103          6/3/2005   11:33      0.12      
strm103          6/3/2005   11:34      0.12      
strm103          6/3/2005   11:35      0.12      
strm103          6/3/2005   11:36      0.12      
strm103          6/3/2005   11:37      0.12      
strm103          6/3/2005   11:38      0.12      
strm103          6/3/2005   11:39      0.12      
strm103          6/3/2005   11:40      0.12      
strm103          6/3/2005   11:41      0.12      
strm103          6/3/2005   11:42      0.12      
strm103          6/3/2005   11:43      0.12      
strm103          6/3/2005   11:44      0.12      
strm103          6/3/2005   11:45      0.12      
strm103          6/3/2005   11:46      0.12      
strm103          6/3/2005   11:47      0.12      
strm103          6/3/2005   11:48      0.12      
strm103          6/3/2005   11:49      0.12      
strm103          6/3/2005   11:50      0.12      
strm103          6/3/2005   11:51      0.24      
strm103          6/3/2005   11:52      0.24      
strm103          6/3/2005   11:53      0.24      
strm103          6/3/2005   11:54      0.24      
strm103          6/3/2005   11:55      0.24      
strm103          6/3/2005   11:56      0.12      
strm103          6/3/2005   11:57      0.12      
strm103          6/3/2005   11:58      0.12      
strm103          6/3/2005   11:59      0.12      
strm103          6/3/2005   12:0       0.12      
strm103          6/3/2005   12:1       0.24      
strm103          6/3/2005   12:2       0.24      
strm103          6/3/2005   12:3       0.24      
strm103          6/3/2005   12:4       0.24      
strm103          6/3/2005   12:5       0.24      
strm103          6/3/2005   12:6       0.12      
strm103          6/3/2005   12:7       0.12      
strm103          6/3/2005   12:8       0.12      
strm103          6/3/2005   12:9       0.12      
strm103          6/3/2005   12:10      0.12      
strm103          6/3/2005   12:11      0.12      
strm103          6/3/2005   12:12      0.12      
strm103          6/3/2005   12:13      0.12      
strm103          6/3/2005   12:14      0.12      
strm103          6/3/2005   12:15      0.12      
strm103          6/3/2005   12:16      0.24      
strm103          6/3/2005   12:17      0.24      
strm103          6/3/2005   12:18      0.24      
strm103          6/3/2005   12:19      0.24      
strm103          6/3/2005   12:20      0.24      
strm103          6/3/2005   12:21      0.12      
strm103          6/3/2005   12:22      0.12      
strm103          6/3/2005   12:23      0.12      
strm103          6/3/2005   12:24      0.12      
strm103          6/3/2005   12:25      0.12      
strm103          6/3/2005   12:26      0.12      
strm103          6/3/2005   12:27      0.12      
strm103          6/3/2005   12:28      0.12      
strm103          6/3/2005   12:29      0.12      
strm103          6/3/2005   12:30      0.12      
strm103          6/3/2005   12:31      0.12      
strm103          6/3/2005   12:32      0.12      
strm103          6/3/2005   12:33      0.12      
strm103          6/3/2005   12:34      0.12      
strm103          6/3/2005   12:35      0.12      
strm103          6/3/2005   12:36      0.24      
strm103          6/3/2005   12:37      0.24      
strm103          6/3/2005   12:38      0.24      
strm103          6/3/2005   12:39      0.24      
strm103          6/3/2005   12:40      0.24      
strm103          6/3/2005   12:41      0.12      
strm103          6/3/2005   12:42      0.12      
strm103          6/3/2005   12:43      0.12      
strm103          6/3/2005   12:44      0.12      
strm103          6/3/2005   12:45      0.12      
strm103          6/3/2005   12:46      0.12      
strm103          6/3/2005   12:47      0.12      
strm103          6/3/2005   12:48      0.12      
strm103          6/3/2005   12:49      0.12      
strm103          6/3/2005   12:50      0.12      
strm103          6/3/2005   12:51      0.24      
strm103          6/3/2005   12:52      0.24      
strm103          6/3/2005   12:53      0.24      
strm103          6/3/2005   12:54      0.24      
strm103          6/3/2005   12:55      0.24      
strm103          6/3/2005   12:56      0.12      
strm103          6/3/2005   12:57      0.12      
strm103          6/3/2005   12:58      0.12      
strm103          6/3/2005   12:59      0.12      
strm103          6/3/2005   13:0       0.12      
strm103          6/3/2005   13:1       0.12      
strm103          6/3/2005   13:2       0.12      
strm103          6/3/2005   13:3       0.12      
strm103          6/3/2005   13:4       0.12      
strm103          6/3/2005   13:5       0.12      
strm103          6/3/2005   13:6       0.24      
strm103          6/3/2005   13:7       0.24      
strm103          6/3/2005   13:8       0.24      