pcf
* control data
restart  estimation
   16   24353     1     0     1
    1     2 single point 1 0 0
  5.0   2.0   0.3  0.01    10
  5.0   5.0 0.001
  0.1
   30  0.01     4     3  0.01     3
    1     1     1
    
* parameter groups
paragroup  relative 0.01  0.0  switch  2.0 parabolic

* parameter data
 ldu_wdth  fixed  factor   90.1   30.0  110.0  paragroup  1.0   0.0  1
ldu_ntstr  none   factor   1.07   0.01  25.00  paragroup  1.0   0.0  1
 srf_strg  fixed  factor   1.00   0.1    1.0   paragroup  1.0   0.0  1
srf_vgvlm  fixed  factor   0.05   0.01   0.5   paragroup  1.0   0.0  1
srf_rghns  fixed  factor   0.41   0.01   0.7   paragroup  1.0   0.0  1
  srf_slp  fixed  factor   4.17   1.00   5.0   paragroup  1.0   0.0  1
  sl_thck  fixed  factor   4.00   3.0    5.0   paragroup  1.0   0.0  1
 sl_prsty  fixed  factor   0.47   0.34   0.70  paragroup  1.0   0.0  1  
 sl_fldcp  fixed  factor   0.33   0.15   0.33  paragroup  1.0   0.0  1
 sl_wltpt  fixed  factor   0.09   0.09   0.14  paragroup  1.0   0.0  1
   sl_kst  fixed  factor   3.00   0.6   45.0   paragroup  1.0   0.0  1
  sl_kcff  fixed  factor   0.50   0.01  20.0   paragroup  1.0   0.0  1
  sl_sctn  fixed  factor   4.00   3.0    8.0   paragroup  1.0   0.0  1
 dmt_thck  fixed  factor   3.00   0.5    3.0   paragroup  1.0   0.0  1
 dmt_vdrto fixed  factor   0.30   0.3    0.5   paragroup  1.0   0.0  1
 dmt_rghns fixed  factor   3.75   0.01  10.0   paragroup  1.0   0.0  1

* observation groups
obsgroup

* observation data
drnflw1                0.00506504199749885  1.0  obsgroup
drnflw2                0.00813441786561123  1.0  obsgroup
drnflw3                0.00813441317041085  1.0  obsgroup
drnflw4                0.00798272306602258  1.0  obsgroup
drnflw5                0.00798271847364655  1.0  obsgroup
drnflw6                0.00798271388127053  1.0  obsgroup
drnflw7                0.00783106789226093  1.0  obsgroup
drnflw8                0.00767942064701473  1.0  obsgroup
drnflw9                0.00783105891478364  1.0  obsgroup
drnflw10                0.00767941187842057  1.0  obsgroup
drnflw11                0.00767940749412349  1.0  obsgroup
drnflw12                0.00752771505223491  1.0  obsgroup
drnflw13                0.00752771077317225  1.0  obsgroup
drnflw14                0.00752770649410958  1.0  obsgroup
drnflw15                0.00752770221504691  1.0  obsgroup
drnflw16                0.0073759214299522  1.0  obsgroup
drnflw17                0.00737591725690256  1.0  obsgroup
drnflw18                0.00722400607076266  1.0  obsgroup
drnflw19                0.00722400200448716  1.0  obsgroup
drnflw20                0.00722399793821167  1.0  obsgroup
drnflw21                0.00707191611347481  1.0  obsgroup
drnflw22                0.00707191215471343  1.0  obsgroup
drnflw23                0.00722398573938518  1.0  obsgroup
drnflw24                0.00691961709349755  1.0  obsgroup
drnflw25                0.00707190027842927  1.0  obsgroup
drnflw26                0.00707189631966789  1.0  obsgroup
drnflw27                0.0067670722819459  1.0  obsgroup
drnflw28                0.00691960169136727  1.0  obsgroup
drnflw29                0.00676706479870822  1.0  obsgroup
drnflw30                0.00676706105708938  1.0  obsgroup
drnflw31                0.00676705731547055  1.0  obsgroup
drnflw32                0.0067670535738517  1.0  obsgroup
drnflw33                0.00661423616896783  1.0  obsgroup
drnflw34                0.00661423253691287  1.0  obsgroup
drnflw35                0.00661422890485792  1.0  obsgroup
drnflw36                0.0064610985874096  1.0  obsgroup
drnflw37                0.00646109506552845  1.0  obsgroup
drnflw38                0.00630762196761501  1.0  obsgroup
drnflw39                0.00646108802176617  1.0  obsgroup
drnflw40                0.00630761514532796  1.0  obsgroup
drnflw41                0.00646108097800388  1.0  obsgroup
drnflw42                0.00630760832304091  1.0  obsgroup
drnflw43                0.00630760491189739  1.0  obsgroup
drnflw44                0.00630760150075387  1.0  obsgroup
drnflw45                0.00630759808961035  1.0  obsgroup
drnflw46                0.00630759467846682  1.0  obsgroup
drnflw47                0.00615375256750478  1.0  obsgroup
drnflw48                0.00630758785617977  1.0  obsgroup
drnflw49                0.00615374596771555  1.0  obsgroup
drnflw50                0.00615374266782092  1.0  obsgroup
drnflw51                0.00599950694209712  1.0  obsgroup
drnflw52                0.0059995037539033  1.0  obsgroup
drnflw53                0.00599950056570949  1.0  obsgroup
drnflw54                0.00599949737751568  1.0  obsgroup
drnflw55                0.00599949418932186  1.0  obsgroup
drnflw56                0.00599949100112805  1.0  obsgroup
drnflw57                0.00584484101522191  1.0  obsgroup
drnflw58                0.00599948462474042  1.0  obsgroup
drnflw59                0.00568975577304532  1.0  obsgroup
drnflw60                0.00584483178689842  1.0  obsgroup
drnflw61                0.00568974984562294  1.0  obsgroup
drnflw62                0.00584482563468276  1.0  obsgroup
drnflw63                0.00553421890848162  1.0  obsgroup
drnflw64                0.00568974095448938  1.0  obsgroup
drnflw65                0.0056897379907782  1.0  obsgroup
drnflw66                0.00568973502706701  1.0  obsgroup
drnflw67                0.00553420750413499  1.0  obsgroup
drnflw68                0.00553420465304832  1.0  obsgroup
drnflw69                0.00537822109213186  1.0  obsgroup
drnflw70                0.00553419895087501  1.0  obsgroup
drnflw71                0.00537821561548048  1.0  obsgroup
drnflw72                0.00537821287715479  1.0  obsgroup
drnflw73                0.00522176757243798  1.0  obsgroup
drnflw74                0.00537820740050341  1.0  obsgroup
drnflw75                0.00537820466217771  1.0  obsgroup
drnflw76                0.00522175969585154  1.0  obsgroup
drnflw77                0.00537819918552633  1.0  obsgroup
drnflw78                0.00522175444479391  1.0  obsgroup
drnflw79                0.00537819370887495  1.0  obsgroup
drnflw80                0.00522174919373629  1.0  obsgroup
drnflw81                0.00537818823222357  1.0  obsgroup
drnflw82                0.00522174394267866  1.0  obsgroup
drnflw83                0.00498569577650776  1.0  obsgroup
drnflw84                0.00474964761033687  1.0  obsgroup
drnflw85                0.00506483092179528  1.0  obsgroup
drnflw86                0.00506482840898928  1.0  obsgroup
drnflw87                0.00506482589618329  1.0  obsgroup
drnflw88                0.00506482338337729  1.0  obsgroup
drnflw89                0.0050648208705713  1.0  obsgroup
drnflw90                0.00490745276772965  1.0  obsgroup
drnflw91                0.00506481584495931  1.0  obsgroup
drnflw92                0.00490744796717571  1.0  obsgroup
drnflw93                0.00506481081934732  1.0  obsgroup
drnflw94                0.00490744316662177  1.0  obsgroup
drnflw95                0.00506480579373533  1.0  obsgroup
drnflw96                0.00537814715733821  1.0  obsgroup
drnflw97                0.00584471797090872  1.0  obsgroup
drnflw98                0.00568964018830901  1.0  obsgroup
drnflw99                0.00568963722459783  1.0  obsgroup
drnflw100                0.00537813620403544  1.0  obsgroup
drnflw101                0.00522169405763121  1.0  obsgroup
drnflw102                0.00537813072738406  1.0  obsgroup
drnflw103                0.00537812798905837  1.0  obsgroup
drnflw104                0.00568962240604189  1.0  obsgroup
drnflw105                0.00615356117361687  1.0  obsgroup
drnflw106                0.00615355787372225  1.0  obsgroup
drnflw107                0.00615355457382763  1.0  obsgroup
drnflw108                0.00615355127393302  1.0  obsgroup
drnflw109                0.00599932202685589  1.0  obsgroup
drnflw110                0.00584467798150694  1.0  obsgroup
drnflw111                0.00584467490539911  1.0  obsgroup
drnflw112                0.00584467182929128  1.0  obsgroup
drnflw113                0.0056895957326412  1.0  obsgroup
drnflw114                0.00568959276893002  1.0  obsgroup
drnflw115                0.00568958980521883  1.0  obsgroup
drnflw116                0.00568958684150764  1.0  obsgroup
drnflw117                0.00568958387779646  1.0  obsgroup
drnflw118                0.00568958091408527  1.0  obsgroup
drnflw119                0.00568957795037408  1.0  obsgroup
drnflw120                0.00584464722042864  1.0  obsgroup
drnflw121                0.00568957202295171  1.0  obsgroup
drnflw122                0.00568956905924052  1.0  obsgroup
drnflw123                0.00599927739214249  1.0  obsgroup
drnflw124                0.00661390565196681  1.0  obsgroup
drnflw125                0.00691922818970802  1.0  obsgroup
drnflw126                0.00707150044352946  1.0  obsgroup
drnflw127                0.00707149648476807  1.0  obsgroup
drnflw128                0.00707149252600669  1.0  obsgroup
drnflw129                0.00722355471418282  1.0  obsgroup
drnflw130                0.00722355064790733  1.0  obsgroup
drnflw131                0.00752720584377736  1.0  obsgroup
drnflw132                0.00752720156471469  1.0  obsgroup
drnflw133                0.00767887260987981  1.0  obsgroup
drnflw134                0.00783049782245259  1.0  obsgroup
drnflw135                0.00783049333371395  1.0  obsgroup
drnflw136                0.00798211687238701  1.0  obsgroup
drnflw137                0.00828554544371671  1.0  obsgroup
drnflw138                0.00858951839536628  1.0  obsgroup
drnflw139                0.00889441005689944  1.0  obsgroup
drnflw140                0.0093542895685681  1.0  obsgroup
drnflw141                0.00981830845255791  1.0  obsgroup
drnflw142                0.0101305300662287  1.0  obsgroup
drnflw143                0.0101305241096284  1.0  obsgroup
drnflw144                0.0104454236345981  1.0  obsgroup
drnflw145                0.0109234333045484  1.0  obsgroup
drnflw146                0.0112462500969208  1.0  obsgroup
drnflw147                0.0119027801419677  1.0  obsgroup
drnflw148                0.0122367981276383  1.0  obsgroup
drnflw149                0.0125747917442723  1.0  obsgroup
drnflw150                0.0134373900318055  1.0  obsgroup
drnflw151                0.013966836896285  1.0  obsgroup
drnflw152                0.0152340604541879  1.0  obsgroup
drnflw153                0.0165376113342074  1.0  obsgroup
drnflw154                0.0180543462320759  1.0  obsgroup
drnflw155                0.0193892191411457  1.0  obsgroup
drnflw156                0.0205317037034715  1.0  obsgroup
drnflw157                0.0222475015257777  1.0  obsgroup
drnflw158                0.0246367031901053  1.0  obsgroup
drnflw159                0.0272141576175981  1.0  obsgroup
drnflw160                0.02917587825  1.0  obsgroup
drnflw161                0.03158213625  1.0  obsgroup
drnflw162                0.034740349875  1.0  obsgroup
drnflw163                0.038500128  1.0  obsgroup
drnflw164                0.041056777125  1.0  obsgroup
drnflw165                0.04361342625  1.0  obsgroup
drnflw166                0.04601968425  1.0  obsgroup
drnflw167                0.048576333375  1.0  obsgroup
drnflw168                0.050080244625  1.0  obsgroup
drnflw169                0.05143376475  1.0  obsgroup
drnflw170                0.05203532925  1.0  obsgroup
drnflw171                0.0523361115  1.0  obsgroup
drnflw172                0.052185720375  1.0  obsgroup
drnflw173                0.051734547  1.0  obsgroup
drnflw174                0.051283373625  1.0  obsgroup
drnflw175                0.050681809125  1.0  obsgroup
drnflw176                0.04962907125  1.0  obsgroup
drnflw177                0.048877115625  1.0  obsgroup
drnflw178                0.04812516  1.0  obsgroup
drnflw179                0.047072422125  1.0  obsgroup
drnflw180                0.046170075375  1.0  obsgroup
drnflw181                0.045267728625  1.0  obsgroup
drnflw182                0.044515773  1.0  obsgroup
drnflw183                0.043312644  1.0  obsgroup
drnflw184                0.042560688375  1.0  obsgroup
drnflw185                0.0415079505  1.0  obsgroup
drnflw186                0.040906386  1.0  obsgroup
drnflw187                0.040455212625  1.0  obsgroup
drnflw188                0.039552865875  1.0  obsgroup
drnflw189                0.038951301375  1.0  obsgroup
drnflw190                0.03819934575  1.0  obsgroup
drnflw191                0.037146607875  1.0  obsgroup
drnflw192                0.03699621675  1.0  obsgroup
drnflw193                0.03609387  1.0  obsgroup
drnflw194                0.035341914375  1.0  obsgroup
drnflw195                0.03458995875  1.0  obsgroup
drnflw196                0.034138785375  1.0  obsgroup
drnflw197                0.0330860475  1.0  obsgroup
drnflw198                0.03278526525  1.0  obsgroup
drnflw199                0.032634874125  1.0  obsgroup
drnflw200                0.032033309625  1.0  obsgroup
drnflw201                0.031431745125  1.0  obsgroup
drnflw202                0.03098057175  1.0  obsgroup
drnflw203                0.030529398375  1.0  obsgroup
drnflw204                0.030228616125  1.0  obsgroup
drnflw205                0.029927833875  1.0  obsgroup
drnflw206                0.029927833875  1.0  obsgroup
drnflw207                0.029025487125  1.0  obsgroup
drnflw208                0.028875096  1.0  obsgroup
drnflw209                0.02857431375  1.0  obsgroup
drnflw210                0.0282735315  1.0  obsgroup
drnflw211                0.028123140375  1.0  obsgroup
drnflw212                0.027220793625  1.0  obsgroup
drnflw213                0.0271455980625  1.0  obsgroup
drnflw214                0.0270704025  1.0  obsgroup
drnflw215                0.0269952069375  1.0  obsgroup
drnflw216                0.026920011375  1.0  obsgroup
drnflw217                0.0268448158125  1.0  obsgroup
drnflw218                0.02676962025  1.0  obsgroup
drnflw219                0.026204699200906  1.0  obsgroup
drnflw220                0.0259672652928162  1.0  obsgroup
drnflw221                0.0255072045887433  1.0  obsgroup
drnflw222                0.0250643546584457  1.0  obsgroup
drnflw223                0.0246359350614218  1.0  obsgroup
drnflw224                0.0240149617162581  1.0  obsgroup
drnflw225                0.0236122496073256  1.0  obsgroup
drnflw226                0.0230204987901039  1.0  obsgroup
drnflw227                0.0226319710511831  1.0  obsgroup
drnflw228                0.0220550427936952  1.0  obsgroup
drnflw229                0.0220550321885908  1.0  obsgroup
drnflw230                0.0214822723376481  1.0  obsgroup
drnflw231                0.0212918408475866  1.0  obsgroup
drnflw232                0.0211015396649251  1.0  obsgroup
drnflw233                0.0207211258724052  1.0  obsgroup
drnflw234                0.0207211157552514  1.0  obsgroup
drnflw235                0.0203406757591242  1.0  obsgroup
drnflw236                0.0201503730815433  1.0  obsgroup
drnflw237                0.0199599977103922  1.0  obsgroup
drnflw238                0.0197695426085058  1.0  obsgroup
drnflw239                0.0195790071037781  1.0  obsgroup
drnflw240                0.0191977308363767  1.0  obsgroup
drnflw241                0.0190070066976073  1.0  obsgroup
drnflw242                0.0186255060749609  1.0  obsgroup
drnflw243                0.0186254966359156  1.0  obsgroup
drnflw244                0.0182440934763236  1.0  obsgroup
drnflw245                0.0178630483769591  1.0  obsgroup
drnflw246                0.0174826619175164  1.0  obsgroup
drnflw247                0.0172928130713122  1.0  obsgroup
drnflw248                0.016914036517092  1.0  obsgroup
drnflw249                0.0165367688891279  1.0  obsgroup
drnflw250                0.0163488068832145  1.0  obsgroup
drnflw251                0.0161613540372976  1.0  obsgroup
drnflw252                0.0161613453871412  1.0  obsgroup
drnflw253                0.0156024837919671  1.0  obsgroup
drnflw254                0.0154174869667693  1.0  obsgroup
drnflw255                0.0152332028639426  1.0  obsgroup
drnflw256                0.0152331945378238  1.0  obsgroup
drnflw257                0.0150496595497875  1.0  obsgroup
drnflw258                0.0146849805787967  1.0  obsgroup
drnflw259                0.0145038910469017  1.0  obsgroup
drnflw260                0.0143236755875298  1.0  obsgroup
drnflw261                0.0143236676036341  1.0  obsgroup
drnflw262                0.0141443518186231  1.0  obsgroup
drnflw263                0.0137885163437955  1.0  obsgroup
drnflw264                0.0136120270216668  1.0  obsgroup
drnflw265                0.0136120193262084  1.0  obsgroup
drnflw266                0.0132619883342943  1.0  obsgroup
drnflw267                0.0130884607286301  1.0  obsgroup
drnflw268                0.0129159374202682  1.0  obsgroup
drnflw269                0.0127444222109973  1.0  obsgroup
drnflw270                0.0125739160547781  1.0  obsgroup
drnflw271                0.0125739088176748  1.0  obsgroup
drnflw272                0.0124044099070268  1.0  obsgroup
drnflw273                0.0122359134525253  1.0  obsgroup
drnflw274                0.0120684119458176  1.0  obsgroup
drnflw275                0.0119018951168086  1.0  obsgroup
drnflw276                0.0119018882025495  1.0  obsgroup
drnflw277                0.0119018812882904  1.0  obsgroup
drnflw278                0.0117363363155228  1.0  obsgroup
drnflw279                0.0115717473840451  1.0  obsgroup
drnflw280                0.0114080962407153  1.0  obsgroup
drnflw281                0.0112453620998002  1.0  obsgroup
drnflw282                0.0110835217202896  1.0  obsgroup
drnflw283                0.0110835152287683  1.0  obsgroup
drnflw284                0.011083508737247  1.0  obsgroup
drnflw285                0.0110835022457257  1.0  obsgroup
drnflw286                0.0109225302773011  1.0  obsgroup
drnflw287                0.0107623985711024  1.0  obsgroup
drnflw288                0.0106030770571907  1.0  obsgroup
drnflw289                0.0104445335913221  1.0  obsgroup
drnflw290                0.0104445274530926  1.0  obsgroup
drnflw291                0.0104445213148631  1.0  obsgroup
drnflw292                0.0104445151766337  1.0  obsgroup
drnflw293                0.0102867159233578  1.0  obsgroup
drnflw294                0.0102867098755287  1.0  obsgroup
drnflw295                0.0101296187063768  1.0  obsgroup
drnflw296                0.00997319785967262  1.0  obsgroup
drnflw297                0.00981740807362699  1.0  obsgroup
drnflw298                0.00981740230196716  1.0  obsgroup
drnflw299                0.00981739653030736  1.0  obsgroup
drnflw300                0.00981739075864754  1.0  obsgroup
drnflw301                0.00966219159739917  1.0  obsgroup
drnflw302                0.00950754075072093  1.0  obsgroup
drnflw303                0.00950753516731296  1.0  obsgroup
drnflw304                0.00935338953016769  1.0  obsgroup
drnflw305                0.00935338404212867  1.0  obsgroup
drnflw306                0.00935337855408965  1.0  obsgroup
drnflw307                0.0091996940057673  1.0  obsgroup
drnflw308                0.00919968861392693  1.0  obsgroup
drnflw309                0.00919968322208654  1.0  obsgroup
drnflw310                0.00904641468457445  1.0  obsgroup
drnflw311                0.00904640938976316  1.0  obsgroup
drnflw312                0.00904640409495189  1.0  obsgroup
drnflw313                0.0087409362912627  1.0  obsgroup
drnflw314                0.00889350059044912  1.0  obsgroup
drnflw315                0.00874092609474322  1.0  obsgroup
drnflw316                0.00874092099648347  1.0  obsgroup
drnflw317                0.00858862362137443  1.0  obsgroup
drnflw318                0.00843655637746664  1.0  obsgroup
drnflw319                0.00858861362389966  1.0  obsgroup
drnflw320                0.00843654658069638  1.0  obsgroup
drnflw321                0.00843654168231126  1.0  obsgroup
drnflw322                0.00843653678392613  1.0  obsgroup
drnflw323                0.00843653188554101  1.0  obsgroup
drnflw324                0.00843652698715589  1.0  obsgroup
drnflw325                0.0082846435691725  1.0  obsgroup
drnflw326                0.00828463877196748  1.0  obsgroup
drnflw327                0.0081328919254888  1.0  obsgroup
drnflw328                0.00828462917755744  1.0  obsgroup
drnflw329                0.00813288253508804  1.0  obsgroup
drnflw330                0.00813287783988767  1.0  obsgroup
drnflw331                0.00798122135906175  1.0  obsgroup
drnflw332                0.00798121676668572  1.0  obsgroup
drnflw333                0.0079812121743097  1.0  obsgroup
drnflw334                0.00782960007472291  1.0  obsgroup
drnflw335                0.00782959558598427  1.0  obsgroup
drnflw336                0.00782959109724562  1.0  obsgroup
drnflw337                0.00782958660850697  1.0  obsgroup
drnflw338                0.00782958211976832  1.0  obsgroup
drnflw339                0.00782957763102967  1.0  obsgroup
drnflw340                0.00782957314229102  1.0  obsgroup
drnflw341                0.00767796067608732  1.0  obsgroup
drnflw342                0.00782956416481373  1.0  obsgroup
drnflw343                0.00767795190749316  1.0  obsgroup
drnflw344                0.00767794752319609  1.0  obsgroup
drnflw345                0.007677943138899  1.0  obsgroup
drnflw346                0.00752628584530362  1.0  obsgroup
drnflw347                0.00767793437030484  1.0  obsgroup
drnflw348                0.00737453597747077  1.0  obsgroup
drnflw349                0.00767792560171068  1.0  obsgroup
drnflw350                0.00752626872905294  1.0  obsgroup
drnflw351                0.00782952376616589  1.0  obsgroup
drnflw352                0.00782951927742724  1.0  obsgroup
drnflw353                0.00813276985027901  1.0  obsgroup
drnflw354                0.00813276515507863  1.0  obsgroup
drnflw355                0.00843637513721696  1.0  obsgroup
drnflw356                0.00843637023883183  1.0  obsgroup
drnflw357                0.0088932771215499  1.0  obsgroup
drnflw358                0.00919941902190794  1.0  obsgroup
drnflw359                0.00981705023071854  1.0  obsgroup
drnflw360                0.0101292315273548  1.0  obsgroup
drnflw361                0.0109220499436588  1.0  obsgroup
drnflw362                0.0114075498623282  1.0  obsgroup
drnflw363                0.012235276486444  1.0  obsgroup
drnflw364                0.0136112574758323  1.0  obsgroup
drnflw365                0.0152322869908651  1.0  obsgroup
drnflw366                0.0169129864623042  1.0  obsgroup
drnflw367                0.0186243261943016  1.0  obsgroup
drnflw368                0.0203393473012695  1.0  obsgroup
drnflw369                0.0226304318191702  1.0  obsgroup
drnflw370                0.0264456227275618  1.0  obsgroup
drnflw371                0.02857431375  1.0  obsgroup
drnflw372                0.033687612  1.0  obsgroup
drnflw373                0.039853648125  1.0  obsgroup
drnflw374                0.046170075375  1.0  obsgroup
drnflw375                0.053088067125  1.0  obsgroup
drnflw376                0.058201365375  1.0  obsgroup
drnflw377                0.0655705305  1.0  obsgroup
drnflw378                0.07248852225  1.0  obsgroup
drnflw379                0.07790260275  1.0  obsgroup
drnflw380                0.081361598625  1.0  obsgroup
drnflw381                0.0848205945  1.0  obsgroup
drnflw382                0.08812919925  1.0  obsgroup
drnflw383                0.0908362395  1.0  obsgroup
drnflw384                0.093092106375  1.0  obsgroup
drnflw385                0.09534797325  1.0  obsgroup
drnflw386                0.100310880375  1.0  obsgroup
drnflw387                0.106025743125  1.0  obsgroup
drnflw388                0.11098865025  1.0  obsgroup
drnflw389                0.11519960175  1.0  obsgroup
drnflw390                0.115500384  1.0  obsgroup
drnflw391                0.113094126  1.0  obsgroup
drnflw392                0.114447646125  1.0  obsgroup
drnflw393                0.117455468625  1.0  obsgroup
drnflw394                0.118057033125  1.0  obsgroup
drnflw395                0.118357815375  1.0  obsgroup
drnflw396                0.11880898875  1.0  obsgroup
drnflw397                0.118959379875  1.0  obsgroup
drnflw398                0.120764073375  1.0  obsgroup
drnflw399                0.120463291125  1.0  obsgroup
drnflw400                0.119861726625  1.0  obsgroup
drnflw401                0.120162508875  1.0  obsgroup
drnflw402                0.1209144645  1.0  obsgroup
drnflw403                0.1209144645  1.0  obsgroup
drnflw404                0.121064855625  1.0  obsgroup
drnflw405                0.12061368225  1.0  obsgroup
drnflw406                0.121064855625  1.0  obsgroup
drnflw407                0.12121524675  1.0  obsgroup
drnflw408                0.121064855625  1.0  obsgroup
drnflw409                0.12061368225  1.0  obsgroup
drnflw410                0.12001211775  1.0  obsgroup
drnflw411                0.1197113355  1.0  obsgroup
drnflw412                0.119109771  1.0  obsgroup
drnflw413                0.117906642  1.0  obsgroup
drnflw414                0.11820742425  1.0  obsgroup
drnflw415                0.117756250875  1.0  obsgroup
drnflw416                0.117455468625  1.0  obsgroup
drnflw417                0.11760585975  1.0  obsgroup
drnflw418                0.11700429525  1.0  obsgroup
drnflw419                0.11760585975  1.0  obsgroup
drnflw420                0.117756250875  1.0  obsgroup
drnflw421                0.119260162125  1.0  obsgroup
drnflw422                0.123471113625  1.0  obsgroup
drnflw423                0.124674242625  1.0  obsgroup
drnflw424                0.1245238515  1.0  obsgroup
drnflw425                0.126478936125  1.0  obsgroup
drnflw426                0.127982847375  1.0  obsgroup
drnflw427                0.128283629625  1.0  obsgroup
drnflw428                0.128885194125  1.0  obsgroup
drnflw429                0.130088323125  1.0  obsgroup
drnflw430                0.131141061  1.0  obsgroup
drnflw431                0.13264497225  1.0  obsgroup
drnflw432                0.133547319  1.0  obsgroup
drnflw433                0.1341488835  1.0  obsgroup
drnflw434                0.132795363375  1.0  obsgroup
drnflw435                0.133096145625  1.0  obsgroup
drnflw436                0.134299274625  1.0  obsgroup
drnflw437                0.134600056875  1.0  obsgroup
drnflw438                0.133396927875  1.0  obsgroup
drnflw439                0.1341488835  1.0  obsgroup
drnflw440                0.134299274625  1.0  obsgroup
drnflw441                0.1353520125  1.0  obsgroup
drnflw442                0.137156706  1.0  obsgroup
drnflw443                0.139562964  1.0  obsgroup
drnflw444                0.139412572875  1.0  obsgroup
drnflw445                0.139713355125  1.0  obsgroup
drnflw446                0.138359835  1.0  obsgroup
drnflw447                0.13745748825  1.0  obsgroup
drnflw448                0.136404750375  1.0  obsgroup
drnflw449                0.13745748825  1.0  obsgroup
drnflw450                0.137307097125  1.0  obsgroup
drnflw451                0.138359835  1.0  obsgroup
drnflw452                0.13926218175  1.0  obsgroup
drnflw453                0.139562964  1.0  obsgroup
drnflw454                0.138510226125  1.0  obsgroup
drnflw455                0.137156706  1.0  obsgroup
drnflw456                0.135502403625  1.0  obsgroup
drnflw457                0.1341488835  1.0  obsgroup
drnflw458                0.13264497225  1.0  obsgroup
drnflw459                0.129185976375  1.0  obsgroup
drnflw460                0.126478936125  1.0  obsgroup
drnflw461                0.12301994025  1.0  obsgroup
drnflw462                0.1203129  1.0  obsgroup
drnflw463                0.116553121875  1.0  obsgroup
drnflw464                0.113094126  1.0  obsgroup
drnflw465                0.10858239225  1.0  obsgroup
drnflw466                0.104822614125  1.0  obsgroup
drnflw467                0.10076205375  1.0  obsgroup
drnflw468                0.09655110225  1.0  obsgroup
drnflw469                0.092791324125  1.0  obsgroup
drnflw470                0.088881154875  1.0  obsgroup
drnflw471                0.08451981225  1.0  obsgroup
drnflw472                0.080459251875  1.0  obsgroup
drnflw473                0.076248300375  1.0  obsgroup
drnflw474                0.072638913375  1.0  obsgroup
drnflw475                0.069029526375  1.0  obsgroup
drnflw476                0.065119357125  1.0  obsgroup
drnflw477                0.061509970125  1.0  obsgroup
drnflw478                0.058802929875  1.0  obsgroup
drnflw479                0.055193542875  1.0  obsgroup
drnflw480                0.0523361115  1.0  obsgroup
drnflw481                0.049328289  1.0  obsgroup
drnflw482                0.0463204665  1.0  obsgroup
drnflw483                0.04421499075  1.0  obsgroup
drnflw484                0.04180873275  1.0  obsgroup
drnflw485                0.03940247475  1.0  obsgroup
drnflw486                0.037296999  1.0  obsgroup
drnflw487                0.035341914375  1.0  obsgroup
drnflw488                0.033236438625  1.0  obsgroup
drnflw489                0.03218370075  1.0  obsgroup
drnflw490                0.030529398375  1.0  obsgroup
drnflw491                0.0294766605  1.0  obsgroup
drnflw492                0.028724704875  1.0  obsgroup
drnflw493                0.027521575875  1.0  obsgroup
drnflw494                0.02737118475  1.0  obsgroup
drnflw495                0.027220793625  1.0  obsgroup
drnflw496                0.0271416404013158  1.0  obsgroup
drnflw497                0.0270624871776316  1.0  obsgroup